!-Generator IDFEditor 1.49
!-Option SortedOrder
!-NOTE: All comments with '!-' are ignored by the IDFEditor and are generated automatically.
!-      Use '!' comments if they need to be retained when using the IDFEditor.
!-   ===========  ALL OBJECTS IN CLASS: VERSION ===========

  Version,9.5;

!-   ===========  ALL OBJECTS IN CLASS: SIMULATIONCONTROL ===========

  SimulationControl,
    No,                      !- Do Zone Sizing Calculation
    No,                      !- Do System Sizing Calculation
    No,                      !- Do Plant Sizing Calculation
    No,                      !- Run Simulation for Sizing Periods
    Yes,                     !- Run Simulation for Weather File Run Periods
    No,                      !- Do HVAC Sizing Simulation for Sizing Periods
    1;                       !- Maximum Number of HVAC Sizing Simulation Passes

!-   ===========  ALL OBJECTS IN CLASS: BUILDING ===========

  Building,
    Building,                !- Name
    0,                       !- North Axis {deg}
    Suburbs,                 !- Terrain
    0.04,                    !- Loads Convergence Tolerance Value {W}
    0.4,                     !- Temperature Convergence Tolerance Value {deltaC}
    FullExterior,            !- Solar Distribution
    25,                      !- Maximum Number of Warmup Days
    6;                       !- Minimum Number of Warmup Days

!-   ===========  ALL OBJECTS IN CLASS: SHADOWCALCULATION ===========

  ShadowCalculation,
    PolygonClipping,         !- Shading Calculation Method
    Periodic,                !- Shading Calculation Update Frequency Method
    20,                      !- Shading Calculation Update Frequency
    15000,                   !- Maximum Figures in Shadow Overlap Calculations
    SutherlandHodgman,       !- Polygon Clipping Algorithm
    ;                        !- Pixel Counting Resolution

!-   ===========  ALL OBJECTS IN CLASS: SURFACECONVECTIONALGORITHM:INSIDE ===========

  SurfaceConvectionAlgorithm:Inside,TARP;

!-   ===========  ALL OBJECTS IN CLASS: SURFACECONVECTIONALGORITHM:OUTSIDE ===========

  SurfaceConvectionAlgorithm:Outside,DOE-2;

!-   ===========  ALL OBJECTS IN CLASS: HEATBALANCEALGORITHM ===========

  HeatBalanceAlgorithm,ConductionTransferFunction,2000,0.00000001,1000;

!-   ===========  ALL OBJECTS IN CLASS: ZONECAPACITANCEMULTIPLIER:RESEARCHSPECIAL ===========

  ZoneCapacitanceMultiplier:ResearchSpecial,
    Multiplier,              !- Name
    ,                        !- Zone or ZoneList Name
    15,                      !- Temperature Capacity Multiplier
    1.0,                     !- Humidity Capacity Multiplier
    1.0,                     !- Carbon Dioxide Capacity Multiplier
    1.0;                     !- Generic Contaminant Capacity Multiplier

!-   ===========  ALL OBJECTS IN CLASS: TIMESTEP ===========

  Timestep,20;

!-   ===========  ALL OBJECTS IN CLASS: CONVERGENCELIMITS ===========

  ConvergenceLimits,
    1,                       !- Minimum System Timestep {minutes}
    25;                      !- Maximum HVAC Iterations

!-   ===========  ALL OBJECTS IN CLASS: SITE:LOCATION ===========

  Site:Location,
    Irec_Tarrasa,            !- Name
    41.5715219,              !- Latitude {deg}
    2.0117757,               !- Longitude {deg}
    1.0,                     !- Time Zone {hr}
    316;                     !- Elevation {m}

!-   ===========  ALL OBJECTS IN CLASS: SIZINGPERIOD:DESIGNDAY ===========

  SizingPeriod:DesignDay,
    Summer Design Day in Sitio (01-01:31-12) Jul,  !- Name
    7,                       !- Month
    15,                      !- Day of Month
    SummerDesignDay,         !- Day Type
    30.2,                    !- Maximum Dry-Bulb Temperature {C}
    7.5,                     !- Daily Dry-Bulb Temperature Range {deltaC}
    ,                        !- Dry-Bulb Temperature Range Modifier Type
    ,                        !- Dry-Bulb Temperature Range Modifier Day Schedule Name
    WetBulb,                 !- Humidity Condition Type
    23.6,                    !- Wetbulb or DewPoint at Maximum Dry-Bulb {C}
    ,                        !- Humidity Condition Day Schedule Name
    ,                        !- Humidity Ratio at Maximum Dry-Bulb {kgWater/kgDryAir}
    ,                        !- Enthalpy at Maximum Dry-Bulb {J/kg}
    ,                        !- Daily Wet-Bulb Temperature Range {deltaC}
    101252.9,                !- Barometric Pressure {Pa}
    0,                       !- Wind Speed {m/s}
    0,                       !- Wind Direction {deg}
    No,                      !- Rain Indicator
    No,                      !- Snow Indicator
    Yes,                     !- Daylight Saving Time Indicator
    ASHRAEClearSky,          !- Solar Model Indicator
    ,                        !- Beam Solar Day Schedule Name
    ,                        !- Diffuse Solar Day Schedule Name
    ,                        !- ASHRAE Clear Sky Optical Depth for Beam Irradiance (taub) {dimensionless}
    ,                        !- ASHRAE Clear Sky Optical Depth for Diffuse Irradiance (taud) {dimensionless}
    0.98;                    !- Sky Clearness

  SizingPeriod:DesignDay,
    Winter Design Day in Sitio (01-01:31-12),  !- Name
    1,                       !- Month
    15,                      !- Day of Month
    WinterDesignDay,         !- Day Type
    1.2,                     !- Maximum Dry-Bulb Temperature {C}
    0,                       !- Daily Dry-Bulb Temperature Range {deltaC}
    ,                        !- Dry-Bulb Temperature Range Modifier Type
    ,                        !- Dry-Bulb Temperature Range Modifier Day Schedule Name
    WetBulb,                 !- Humidity Condition Type
    1.2,                     !- Wetbulb or DewPoint at Maximum Dry-Bulb {C}
    ,                        !- Humidity Condition Day Schedule Name
    ,                        !- Humidity Ratio at Maximum Dry-Bulb {kgWater/kgDryAir}
    ,                        !- Enthalpy at Maximum Dry-Bulb {J/kg}
    ,                        !- Daily Wet-Bulb Temperature Range {deltaC}
    101252.9,                !- Barometric Pressure {Pa}
    11.1,                    !- Wind Speed {m/s}
    0,                       !- Wind Direction {deg}
    No,                      !- Rain Indicator
    No,                      !- Snow Indicator
    No,                      !- Daylight Saving Time Indicator
    ,                        !- Solar Model Indicator
    ,                        !- Beam Solar Day Schedule Name
    ,                        !- Diffuse Solar Day Schedule Name
    ,                        !- ASHRAE Clear Sky Optical Depth for Beam Irradiance (taub) {dimensionless}
    ,                        !- ASHRAE Clear Sky Optical Depth for Diffuse Irradiance (taud) {dimensionless}
    0;                       !- Sky Clearness

!-   ===========  ALL OBJECTS IN CLASS: RUNPERIOD ===========

  RunPeriod,
    All_year,                !- Name
    1,                       !- Begin Month
    1,                       !- Begin Day of Month
    ,                        !- Begin Year
    12,                      !- End Month
    31,                      !- End Day of Month
    ,                        !- End Year
    ,                        !- Day of Week for Start Day
    No,                      !- Use Weather File Holidays and Special Days
    No,                      !- Use Weather File Daylight Saving Period
    Yes,                     !- Apply Weekend Holiday Rule
    Yes,                     !- Use Weather File Rain Indicators
    Yes,                     !- Use Weather File Snow Indicators
    ;                        !- Treat Weather as Actual

!-   ===========  ALL OBJECTS IN CLASS: RUNPERIODCONTROL:DAYLIGHTSAVINGTIME ===========
!RunPeriodControl:DaylightSavingTime,
!    Last Sunday in March,    !- Start Date
!    Last Sunday in October;  !- End Date
!-   ===========  ALL OBJECTS IN CLASS: SITE:GROUNDTEMPERATURE:BUILDINGSURFACE ===========

  Site:GroundTemperature:BuildingSurface,18,18,18,18,18,18,18,18,18,18,18,18;

!-   ===========  ALL OBJECTS IN CLASS: SITE:GROUNDTEMPERATURE:FCFACTORMETHOD ===========

  Site:GroundTemperature:FCfactorMethod,9.17,8.53,9.66,11.44,16.10,19.70,22.12,22.86,21.60,18.81,15.08,11.62;

!-   ===========  ALL OBJECTS IN CLASS: SITE:GROUNDTEMPERATURE:SHALLOW ===========

  Site:GroundTemperature:Shallow,18,18,18,18,18,18,18,18,18,18,18,18;

!-   ===========  ALL OBJECTS IN CLASS: SITE:GROUNDTEMPERATURE:DEEP ===========

  Site:GroundTemperature:Deep,18,18,18,18,18,18,18,18,18,18,18,18;

!-   ===========  ALL OBJECTS IN CLASS: SITE:GROUNDREFLECTANCE ===========

  Site:GroundReflectance,0.2,0.2,0.2,0.2,0.2,0.2,0.2,0.2,0.2,0.2,0.2,0.2;

!-   ===========  ALL OBJECTS IN CLASS: SITE:GROUNDREFLECTANCE:SNOWMODIFIER ===========

  Site:GroundReflectance:SnowModifier,
    2.0,                     !- Ground Reflected Solar Modifier
    2.0;                     !- Daylighting Ground Reflected Solar Modifier

!-   ===========  ALL OBJECTS IN CLASS: SITE:WATERMAINSTEMPERATURE ===========

  Site:WaterMainsTemperature,
    Correlation,             !- Calculation Method
    ,                        !- Temperature Schedule Name
    10,                      !- Annual Average Outdoor Air Temperature {C}
    20;                      !- Maximum Difference In Monthly Average Outdoor Air Temperatures {deltaC}

!-   ===========  ALL OBJECTS IN CLASS: SCHEDULETYPELIMITS ===========

  ScheduleTypeLimits,
    Any Number;              !- Name

  ScheduleTypeLimits,
    Fraction,                !- Name
    0.0,                     !- Lower Limit Value
    1.0,                     !- Upper Limit Value
    CONTINUOUS;              !- Numeric Type

  ScheduleTypeLimits,
    Temperature,             !- Name
    -60,                     !- Lower Limit Value
    200,                     !- Upper Limit Value
    CONTINUOUS;              !- Numeric Type

  ScheduleTypeLimits,
    Control Type,            !- Name
    0,                       !- Lower Limit Value
    4,                       !- Upper Limit Value
    DISCRETE;                !- Numeric Type

  ScheduleTypeLimits,
    On/Off,                  !- Name
    0,                       !- Lower Limit Value
    1,                       !- Upper Limit Value
    DISCRETE;                !- Numeric Type

!-   ===========  ALL OBJECTS IN CLASS: SCHEDULE:DAY:INTERVAL ===========

  Schedule:Day:Interval,
    0percent,                !- Name
    Any Number,              !- Schedule Type Limits Name
    No,                      !- Interpolate to Timestep
    24:00,                   !- Time 1
    0;                       !- Value Until Time 1

  Schedule:Day:Interval,
    100percent,              !- Name
    Any Number,              !- Schedule Type Limits Name
    No,                      !- Interpolate to Timestep
    24:00,                   !- Time 1
    1;                       !- Value Until Time 1

  Schedule:Day:Interval,
    DayNoHTG,                !- Name
    Any Number,              !- Schedule Type Limits Name
    No,                      !- Interpolate to Timestep
    24:00,                   !- Time 1
    -50;                     !- Value Until Time 1

  Schedule:Day:Interval,
    Day_18_21.5_18degrees_Weekday,  !- Name
    Temperature,             !- Schedule Type Limits Name
    No,                      !- Interpolate to Timestep
    07:00,                   !- Time 1
    18,                      !- Value Until Time 1
    23:00,                   !- Time 2
    21.5,                    !- Value Until Time 2
    24:00,                   !- Time 3
    18;                      !- Value Until Time 3

  Schedule:Day:Interval,
    Day_18_21.5_18degrees_Saturday,  !- Name
    Temperature,             !- Schedule Type Limits Name
    No,                      !- Interpolate to Timestep
    07:00,                   !- Time 1
    18,                      !- Value Until Time 1
    14:00,                   !- Time 2
    21.5,                    !- Value Until Time 2
    24:00,                   !- Time 3
    18;                      !- Value Until Time 3

!-   ===========  ALL OBJECTS IN CLASS: SCHEDULE:DAY:LIST ===========
! name
! Schedule type
! Interpolate value
! Minutes per item

  Schedule:Day:List,
    PeopleTz1day1,           !- Name
    Any Number,              !- Schedule Type Limits Name
    Average,                 !- Interpolate to Timestep
    60,                      !- Minutes per Item
    0,                       !- Value 1
    0,                       !- <none>
    0,                       !- <none>
    0,                       !- <none>
    0,                       !- <none>
    0,                       !- <none>
    0,                       !- <none>
    0,                       !- <none>
    0,                       !- <none>
    0,                       !- <none>
    0,                       !- <none>
    0,                       !- <none>
    0,                       !- <none>
    1,                       !- <none>
    1,                       !- <none>
    1,                       !- <none>
    0,                       !- <none>
    0,                       !- <none>
    0,                       !- <none>
    1,                       !- <none>
    2,                       !- <none>
    2,                       !- <none>
    2,                       !- <none>
    0;                       !- <none>

  Schedule:Day:List,
    PeopleTz2day1,           !- Name
    Any Number,              !- Schedule Type Limits Name
    Average,                 !- Interpolate to Timestep
    60,                      !- Minutes per Item
    2,                       !- Value 1
    2,                       !- <none>
    2,                       !- <none>
    2,                       !- <none>
    2,                       !- <none>
    2,                       !- <none>
    2,                       !- <none>
    1,                       !- <none>
    0,                       !- <none>
    0,                       !- <none>
    0,                       !- <none>
    0,                       !- <none>
    0,                       !- <none>
    0,                       !- <none>
    0,                       !- <none>
    0,                       !- <none>
    0,                       !- <none>
    0,                       !- <none>
    0,                       !- <none>
    0,                       !- <none>
    0,                       !- <none>
    0,                       !- <none>
    0,                       !- <none>
    2;                       !- <none>

! name
! Schedule type
! Interpolate value
! Minutes per item

  Schedule:Day:List,
    PeopleTz7day1,           !- Name
    Any Number,              !- Schedule Type Limits Name
    Average,                 !- Interpolate to Timestep
    60,                      !- Minutes per Item
    0,                       !- Value 1
    0,                       !- <none>
    0,                       !- <none>
    0,                       !- <none>
    0,                       !- <none>
    0,                       !- <none>
    0,                       !- <none>
    0,                       !- <none>
    0,                       !- <none>
    0,                       !- <none>
    0,                       !- <none>
    0,                       !- <none>
    0,                       !- <none>
    2,                       !- <none>
    2,                       !- <none>
    1,                       !- <none>
    1,                       !- <none>
    0,                       !- <none>
    1,                       !- <none>
    1,                       !- <none>
    2,                       !- <none>
    3,                       !- <none>
    3,                       !- <none>
    0;                       !- <none>

! Schedule type
! Interpolate value
! Minutes per item

  Schedule:Day:List,
    PeopleTz8day1,           !- Name
    Any Number,              !- Schedule Type Limits Name
    Average,                 !- Interpolate to Timestep
    60,                      !- Minutes per Item
    3,                       !- Value 1
    3,                       !- <none>
    3,                       !- <none>
    3,                       !- <none>
    3,                       !- <none>
    3,                       !- <none>
    3,                       !- <none>
    1,                       !- <none>
    0,                       !- <none>
    0,                       !- <none>
    0,                       !- <none>
    0,                       !- <none>
    0,                       !- <none>
    0,                       !- <none>
    0,                       !- <none>
    0,                       !- <none>
    0,                       !- <none>
    0,                       !- <none>
    0,                       !- <none>
    0,                       !- <none>
    0,                       !- <none>
    0,                       !- <none>
    0,                       !- <none>
    3;                       !- <none>

! name
! Schedule type
! Interpolate value
! Minutes per item

  Schedule:Day:List,
    PeopleTz5day1,           !- Name
    Any Number,              !- Schedule Type Limits Name
    Average,                 !- Interpolate to Timestep
    60,                      !- Minutes per Item
    0,                       !- Value 1
    0,                       !- <none>
    0,                       !- <none>
    0,                       !- <none>
    0,                       !- <none>
    0,                       !- <none>
    0,                       !- <none>
    0,                       !- <none>
    0,                       !- <none>
    0,                       !- <none>
    0,                       !- <none>
    0,                       !- <none>
    0,                       !- <none>
    2,                       !- <none>
    2,                       !- <none>
    1,                       !- <none>
    1,                       !- <none>
    0,                       !- <none>
    1,                       !- <none>
    1,                       !- <none>
    2,                       !- <none>
    3,                       !- <none>
    3,                       !- <none>
    0;                       !- <none>

! name
! Schedule type
! Interpolate value
! Minutes per item

  Schedule:Day:List,
    PeopleTz6day1,           !- Name
    Any Number,              !- Schedule Type Limits Name
    Average,                 !- Interpolate to Timestep
    60,                      !- Minutes per Item
    3,                       !- Value 1
    3,                       !- <none>
    3,                       !- <none>
    3,                       !- <none>
    3,                       !- <none>
    3,                       !- <none>
    3,                       !- <none>
    1,                       !- <none>
    0,                       !- <none>
    0,                       !- <none>
    0,                       !- <none>
    0,                       !- <none>
    0,                       !- <none>
    0,                       !- <none>
    0,                       !- <none>
    0,                       !- <none>
    0,                       !- <none>
    0,                       !- <none>
    0,                       !- <none>
    0,                       !- <none>
    0,                       !- <none>
    0,                       !- <none>
    0,                       !- <none>
    3;                       !- <none>

  Schedule:Day:List,
    PeopleTz3day1,           !- Name
    Any Number,              !- Schedule Type Limits Name
    Average,                 !- Interpolate to Timestep
    60,                      !- Minutes per Item
    0,                       !- Value 1
    0,                       !- <none>
    0,                       !- <none>
    0,                       !- <none>
    0,                       !- <none>
    0,                       !- <none>
    0,                       !- <none>
    0,                       !- <none>
    0,                       !- <none>
    0,                       !- <none>
    0,                       !- <none>
    0,                       !- <none>
    1,                       !- <none>
    2,                       !- <none>
    3,                       !- <none>
    2,                       !- <none>
    1,                       !- <none>
    1,                       !- <none>
    1,                       !- <none>
    1,                       !- <none>
    3,                       !- <none>
    4,                       !- <none>
    4,                       !- <none>
    0;                       !- <none>

! name
! Schedule type
! Interpolate value
! Minutes per item

  Schedule:Day:List,
    PeopleTz4day1,           !- Name
    Any Number,              !- Schedule Type Limits Name
    Average,                 !- Interpolate to Timestep
    60,                      !- Minutes per Item
    4,                       !- Value 1
    4,                       !- <none>
    4,                       !- <none>
    4,                       !- <none>
    4,                       !- <none>
    4,                       !- <none>
    4,                       !- <none>
    2,                       !- <none>
    0,                       !- <none>
    0,                       !- <none>
    0,                       !- <none>
    0,                       !- <none>
    0,                       !- <none>
    0,                       !- <none>
    0,                       !- <none>
    0,                       !- <none>
    0,                       !- <none>
    0,                       !- <none>
    0,                       !- <none>
    0,                       !- <none>
    0,                       !- <none>
    0,                       !- <none>
    0,                       !- <none>
    4;                       !- <none>

! name
! Schedule type
! Interpolate value
! Minutes per item

  Schedule:Day:List,
    LightTz1day1,            !- Name
    Any Number,              !- Schedule Type Limits Name
    Average,                 !- Interpolate to Timestep
    60,                      !- Minutes per Item
    0,                       !- Value 1
    0,                       !- <none>
    0,                       !- <none>
    0,                       !- <none>
    0,                       !- <none>
    0,                       !- <none>
    0,                       !- <none>
    0,                       !- <none>
    0,                       !- <none>
    0.7,                     !- <none>
    0.4,                     !- <none>
    0.15,                    !- <none>
    0.7,                     !- <none>
    0.3,                     !- <none>
    0.15,                    !- <none>
    0.3,                     !- <none>
    0.25,                    !- <none>
    0.25,                    !- <none>
    0.9,                     !- <none>
    0.65,                    !- <none>
    0.35,                    !- <none>
    0.7,                     !- <none>
    0,                       !- <none>
    0;                       !- <none>

! Schedule type
! Interpolate value
! Minutes per item

  Schedule:Day:List,
    LightTz2day1,            !- Name
    Any Number,              !- Schedule Type Limits Name
    Average,                 !- Interpolate to Timestep
    60,                      !- Minutes per Item
    0,                       !- Value 1
    0,                       !- <none>
    0,                       !- <none>
    0,                       !- <none>
    0,                       !- <none>
    0,                       !- <none>
    0.1,                     !- <none>
    0.05,                    !- <none>
    0,                       !- <none>
    0,                       !- <none>
    0,                       !- <none>
    0,                       !- <none>
    0,                       !- <none>
    0,                       !- <none>
    0,                       !- <none>
    0,                       !- <none>
    0,                       !- <none>
    0,                       !- <none>
    0,                       !- <none>
    0,                       !- <none>
    0,                       !- <none>
    0,                       !- <none>
    0.05,                    !- <none>
    0;                       !- <none>

! name
! Schedule type
! Interpolate value
! Minutes per item

  Schedule:Day:List,
    LightTz3day1,            !- Name
    Any Number,              !- Schedule Type Limits Name
    Average,                 !- Interpolate to Timestep
    60,                      !- Minutes per Item
    0,                       !- Value 1
    0,                       !- <none>
    0,                       !- <none>
    0,                       !- <none>
    0,                       !- <none>
    0,                       !- <none>
    0,                       !- <none>
    0.15,                    !- <none>
    0.65,                    !- <none>
    0.35,                    !- <none>
    0.25,                    !- <none>
    0.85,                    !- <none>
    1,                       !- <none>
    0.75,                    !- <none>
    0.25,                    !- <none>
    0.2,                     !- <none>
    0.8,                     !- <none>
    0.6,                     !- <none>
    0.35,                    !- <none>
    0.7,                     !- <none>
    0.95,                    !- <none>
    1,                       !- <none>
    0.4,                     !- <none>
    0;                       !- <none>

! name
! Schedule type
! Interpolate value
! Minutes per item

  Schedule:Day:List,
    LightTz4day1,            !- Name
    Any Number,              !- Schedule Type Limits Name
    Average,                 !- Interpolate to Timestep
    60,                      !- Minutes per Item
    0,                       !- Value 1
    0,                       !- <none>
    0,                       !- <none>
    0,                       !- <none>
    0,                       !- <none>
    0,                       !- <none>
    0.05,                    !- <none>
    0,                       !- <none>
    0,                       !- <none>
    0,                       !- <none>
    0,                       !- <none>
    0,                       !- <none>
    0,                       !- <none>
    0,                       !- <none>
    0,                       !- <none>
    0,                       !- <none>
    0,                       !- <none>
    0,                       !- <none>
    0,                       !- <none>
    0,                       !- <none>
    0,                       !- <none>
    0,                       !- <none>
    0,                       !- <none>
    0;                       !- <none>

! name
! Schedule type
! Interpolate value
! Minutes per item

  Schedule:Day:List,
    LightTz5day1,            !- Name
    Any Number,              !- Schedule Type Limits Name
    Average,                 !- Interpolate to Timestep
    60,                      !- Minutes per Item
    0,                       !- Value 1
    0,                       !- <none>
    0,                       !- <none>
    0,                       !- <none>
    0,                       !- <none>
    0,                       !- <none>
    0,                       !- <none>
    0,                       !- <none>
    0.25,                    !- <none>
    1,                       !- <none>
    0.25,                    !- <none>
    0.4,                     !- <none>
    0.8,                     !- <none>
    0.5,                     !- <none>
    0.75,                    !- <none>
    0.8,                     !- <none>
    0.65,                    !- <none>
    0.9,                     !- <none>
    1,                       !- <none>
    0.95,                    !- <none>
    0.8,                     !- <none>
    1,                       !- <none>
    0.4,                     !- <none>
    0;                       !- <none>

! name
! Schedule type
! Interpolate value
! Minutes per item

  Schedule:Day:List,
    LightTz6day1,            !- Name
    Any Number,              !- Schedule Type Limits Name
    Average,                 !- Interpolate to Timestep
    60,                      !- Minutes per Item
    0,                       !- Value 1
    0,                       !- <none>
    0,                       !- <none>
    0,                       !- <none>
    0,                       !- <none>
    0,                       !- <none>
    0,                       !- <none>
    0,                       !- <none>
    0,                       !- <none>
    0,                       !- <none>
    0,                       !- <none>
    0,                       !- <none>
    0,                       !- <none>
    0,                       !- <none>
    0,                       !- <none>
    0,                       !- <none>
    0,                       !- <none>
    0,                       !- <none>
    0,                       !- <none>
    0,                       !- <none>
    0,                       !- <none>
    0,                       !- <none>
    0.05,                    !- <none>
    0;                       !- <none>

! name
! Schedule type
! Interpolate value
! Minutes per item

  Schedule:Day:List,
    LightTz7day1,            !- Name
    Any Number,              !- Schedule Type Limits Name
    Average,                 !- Interpolate to Timestep
    60,                      !- Minutes per Item
    0,                       !- Value 1
    0,                       !- <none>
    0,                       !- <none>
    0,                       !- <none>
    0,                       !- <none>
    0,                       !- <none>
    0,                       !- <none>
    0,                       !- <none>
    0.25,                    !- <none>
    1,                       !- <none>
    0.25,                    !- <none>
    0.4,                     !- <none>
    0.8,                     !- <none>